LAMMPS (17 Apr 2024)
variable T equal 300

units real
atom_style molecular
boundary p p p
pair_style lj/cut 14

bond_style harmonic
angle_style harmonic
dihedral_style opls
improper_style harmonic

special_bonds lj 0.0 0.0 0.5

read_data cnt_molecular.data
Reading data file ...
  orthogonal box = (-40 -40 -12.130411) to (40 40 67.869589)
  reading atoms ...
  700 atoms
  scanning bonds ...
  scanning angles ...
  scanning dihedrals ...
  scanning impropers ...
  orthogonal box = (-40 -40 -12.130411) to (40 40 67.869589)
  reading bonds ...
  1035 bonds
  reading angles ...
  2040 angles
  reading dihedrals ...
  4030 dihedrals
  reading impropers ...
  670 impropers
Finding 1-2 1-3 1-4 neighbors ...
     3 = max # of 1-2 neighbors
     6 = max # of 1-3 neighbors
    18 = max # of 1-4 neighbors
    18 = max # of special neighbors
include ../unbreakable-bonds/parm.lammps
pair_coeff 1 1 0.066 3.4
bond_coeff 1 469 1.4
angle_coeff 1 63 120
dihedral_coeff 1 0 7.25 0 0
improper_coeff 1 5 180

change_box all x final -7 7 y final -7 7 # adjust the box size before replicating
Changing box ...
  orthogonal box = (-7 -40 -12.130411) to (7 40 67.869589)
  orthogonal box = (-7 -7 -12.130411) to (7 7 67.869589)
replicate 3 3 1 # replicate along x y to make 9 CNTs
Replication is creating a 3x3x1 = 9 times larger system...
  orthogonal box = (-7 -7 -12.130411) to (35 35 67.869589)
  6300 atoms
  9315 bonds
  18360 angles
  36270 dihedrals
  6030 impropers
Finding 1-2 1-3 1-4 neighbors ...
     3 = max # of 1-2 neighbors
     6 = max # of 1-3 neighbors
    18 = max # of 1-4 neighbors
    18 = max # of special neighbors
  replicate CPU = 0.028 seconds

region center block INF INF 7 21 INF INF
group CNT_center region center
2100 atoms in group CNT_center
displace_atoms CNT_center move 7 0 0
Displacing atoms ...

# let us first equilibrate using NPT anisotropic
velocity all create 300 48455 mom yes rot yes
fix mynpt all npt temp 300 300 100 x 1 1 1000 y 1 1 1000

thermo 100

timestep 1.0
run 4000
Generated 0 of 0 mixed pair_coeff terms from geometric mixing rule
Step          Temp          E_pair         E_mol          TotEng         Press          Volume
0   300            2671.3287      19661.477      27965.643     -19418.884      141120
Averages over the last 21 of 41 rows, steps 2000 to 4000:
Temp E_pair E_mol TotEng Press Volume
299.394 2274.41 23925.8 31821.6 -589.629 119843
Loop time of 640.172 on 1 procs for 4000 steps with 6300 atoms
