LAMMPS (17 Apr 2024)
units lj
dimension 3
atom_style atomic
pair_style lj/cut 2.5
boundary p p p

region simulation_box block -20 20 -20 20 -20 20
create_box 1 simulation_box
Created orthogonal box = (-20 -20 -20) to (20 20 20)
create_atoms 1 random 1000 341841 simulation_box
Created 1000 atoms

mass 1 1
pair_coeff 1 1 1.0 1.0

dump mydmp all atom 100 dump.lammpstrj
thermo 100
thermo_style custom step temp pe ke etotal press

fix mynve all nve
fix mylgv all langevin 0.001 0.001 0.001 1530917
timestep 0.0001

run 10000
Generated 0 of 0 mixed pair_coeff terms from geometric mixing rule
Step          Temp          PotEng         KinEng         TotEng         Press
0   0              2722.52        0              2722.52        170.35982
Averages over the last 51 of 101 rows, steps 5000 to 10000:
Temp PotEng KinEng TotEng Press
0.00102113 -0.0791461 0.00153016 -0.077616 0.00237765
Loop time of 1.35506 on 1 procs for 10000 steps with 1000 atoms

fix mylgv all langevin 0.1 0.1 0.1 1530917
timestep 0.005

run 10000
Generated 0 of 0 mixed pair_coeff terms from geometric mixing rule
Step          Temp          PotEng         KinEng         TotEng         Press
10000   0.0010759724  -0.090087545    0.0016123446  -0.088475201    0.0014102132
Averages over the last 51 of 101 rows, steps 15000 to 20000:
Temp PotEng KinEng TotEng Press
0.100138 -0.612392 0.150056 -0.462335 0.000469387
Loop time of 1.55265 on 1 procs for 10000 steps with 1000 atoms
