LAMMPS (17 Apr 2024)

variable T equal 500

units real
atom_style molecular
boundary p p p
pair_style lj/cut 14

bond_style harmonic
angle_style harmonic
dihedral_style opls
improper_style harmonic

special_bonds lj 0.0 0.0 0.5

read_data cnt_molecular.data
Reading data file ...
  orthogonal box = (-100 -100 -100) to (100 100 100)
  reading atoms ...
  700 atoms
  scanning bonds ...
  scanning angles ...
  scanning dihedrals ...
  scanning impropers ...
  orthogonal box = (-100 -100 -100) to (100 100 100)
  reading bonds ...
  1035 bonds
  reading angles ...
  2040 angles
  reading dihedrals ...
  4030 dihedrals
  reading impropers ...
  670 impropers
Finding 1-2 1-3 1-4 neighbors ...
     3 = max # of 1-2 neighbors
     6 = max # of 1-3 neighbors
    18 = max # of 1-4 neighbors
    18 = max # of special neighbors
include parm.lammps
pair_coeff 1 1 0.066047 3.4
pair_coeff 2 2 0.232 3.3952
bond_coeff 1 469 1.4
angle_coeff 1 63 120
dihedral_coeff 1 0 7.25 0 0
improper_coeff 1 5 180

group carbon_atoms type 1 # CNT atoms
700 atoms in group carbon_atoms

# move the CNT to the center of the box
variable carbon_xcm equal -1*xcm(carbon_atoms,x)
variable carbon_ycm equal -1*xcm(carbon_atoms,y)
variable carbon_zcm equal -1*xcm(carbon_atoms,z)
displace_atoms carbon_atoms move 8.45130634422529e-18 1.0914862143567e-15 -27.8695884500003
Displacing atoms ...

# move the CNT to the center of the box
change_box all x final -100 100 y final -100 100 z final -100 100
Changing box ...
  orthogonal box = (-100 -100 -100) to (100 100 100)
  orthogonal box = (-100 -100 -100) to (100 100 100)
  orthogonal box = (-100 -100 -100) to (100 100 100)

# create a gas phase
delete_atoms random fraction 0.04 no carbon_atoms NULL 782793 bond yes
Deleted 32 atoms, new total = 668
Deleted 91 bonds, new total = 944
Deleted 259 angles, new total = 1781
Deleted 665 dihedrals, new total = 3365
Deleted 109 impropers, new total = 561

variable zmax equal bound(carbon_atoms,zmax) # find the max and min z values of the CNT
variable zmin equal bound(carbon_atoms,zmin)
region inside_CNT cylinder z 0 0 2.5 -27.8695884500003 27.8695895499997
create_atoms 2 random 40 323485 inside_CNT overlap 1.8 maxtry 50 # create 40 gas atoms inside the CNT
Created 40 atoms

group CNT type 1
668 atoms in group CNT
group gas type 2
40 atoms in group gas

reset_atoms id sort yes
Generated 1 of 1 mixed pair_coeff terms from geometric mixing rule
Finding 1-2 1-3 1-4 neighbors ...
     3 = max # of 1-2 neighbors
     6 = max # of 1-3 neighbors
    18 = max # of 1-4 neighbors
    18 = max # of special neighbors

minimize 1.0e-4 1.0e-6 100 1000
Generated 1 of 1 mixed pair_coeff terms from geometric mixing rule
Step          Temp          E_pair         E_mol          TotEng         Press
0   0              6469.6166      1835.2965      8304.9132      185.05546
Loop time of 1.47353 on 1 procs for 100 steps with 708 atoms

Minimization stats:
  Stopping criterion = max iterations
  Energy initial, next-to-last, final =
  Force two-norm initial, final = 14354.011 24.14738
  Force max component initial, final = 5600.1242 2.2498862
  Final line search alpha, max atom move = 0.0022786996 0.0051268146
  Iterations, force evaluations = 100 188

reset_timestep 0

# create a velocity for the gas atoms
velocity all create 500 48455 mom yes rot yes
fix mynve all nve
compute tcar carbon_atoms temp # compute the temperature of the CNT
fix myber1 all temp/berendsen 500 500 100
fix_modify myber1 temp tcar # modify the fix to compute tcar
compute tgas gas temp # compute the temperature of the gas
fix myber2 all temp/berendsen 500 500 100
fix_modify myber2 temp tgas # modify the fix to compute tgas
fix myspr carbon_atoms spring/self 5 # fix the CNT atoms to keep the CNT straight
timestep 1.0 # set the timestep

dump mydmp all atom 1000 dump.lammpstrj
thermo 1000

run 8000
Generated 1 of 1 mixed pair_coeff terms from geometric mixing rule
Step          Temp          E_pair         E_mol          TotEng         Press
0   500            457.0926       1770.712       3281.521       6.0050675
Averages over the last 5 of 9 rows, steps 4000 to 8000:
Temp E_pair E_mol TotEng Press
454.601 543.786 2621.39 4123.22 2.0955
Loop time of 48.7216 on 1 procs for 8000 steps with 708 atoms
